Version 4
SHEET 1 880 680
WIRE -912 -2064 -960 -2064
WIRE -512 -2064 -800 -2064
WIRE -960 -1936 -960 -2064
WIRE -960 -1936 -1232 -1936
WIRE -672 -1936 -960 -1936
WIRE -512 -1936 -512 -2064
WIRE -448 -1936 -512 -1936
WIRE -560 -1920 -576 -1920
WIRE -544 -1920 -560 -1920
WIRE -336 -1920 -352 -1920
WIRE -160 -1920 -336 -1920
WIRE -672 -1904 -752 -1904
WIRE -448 -1904 -512 -1904
WIRE -560 -1888 -576 -1888
WIRE -512 -1888 -512 -1904
WIRE -512 -1888 -560 -1888
WIRE -336 -1888 -352 -1888
WIRE -272 -1888 -336 -1888
WIRE -256 -1888 -272 -1888
WIRE -672 -1872 -704 -1872
WIRE -544 -1872 -544 -1920
WIRE -448 -1872 -544 -1872
WIRE -1184 -1760 -1264 -1760
WIRE -1120 -1760 -1184 -1760
WIRE -752 -1760 -752 -1904
WIRE -752 -1760 -1008 -1760
WIRE -1184 -1696 -1184 -1760
WIRE -704 -1696 -704 -1872
WIRE -704 -1696 -1184 -1696
FLAG -1264 -1760 D
IOPIN -1264 -1760 In
FLAG -1232 -1936 CLK
IOPIN -1232 -1936 In
FLAG -160 -1920 Q
IOPIN -160 -1920 Out
FLAG -272 -1888 Q~
IOPIN -272 -1888 Out
SYMBOL SR_latch -624 -1904 R0
SYMATTR InstName X1
SYMBOL SR_latch -400 -1904 R0
SYMATTR InstName X2
SYMBOL inverter -864 -2064 R0
SYMATTR InstName X3
SYMBOL inverter -1072 -1760 R0
SYMATTR InstName X4
TEXT -1208 -2240 Left 2 !.lib C:\\Users\\NOR0185869\\Downloads\\Tech_models.txt
