Version 4
SHEET 1 880 680
WIRE -272 64 -288 64
WIRE -240 64 -272 64
WIRE -64 64 -128 64
WIRE 160 80 32 80
WIRE -64 96 -144 96
WIRE -144 144 -144 96
WIRE -144 144 -176 144
WIRE -272 192 -272 64
WIRE -64 192 -272 192
WIRE 160 208 32 208
WIRE -144 224 -144 144
WIRE -64 224 -144 224
FLAG -288 64 ROW#
IOPIN -288 64 In
FLAG -176 144 E
IOPIN -176 144 In
FLAG 160 80 L0
IOPIN 160 80 Out
FLAG 160 208 L1
IOPIN 160 208 Out
SYMBOL inverter -192 64 R0
SYMATTR InstName X1
SYMBOL ANDgate -16 80 R0
SYMATTR InstName X3
SYMBOL ANDgate -16 208 R0
SYMATTR InstName X4
TEXT -280 -96 Left 2 !.lib C:\\Users\\NOR0185869\\Downloads\\Tech_models.txt
TEXT -272 -64 Left 2 !.tran 100n
