Version 4
SHEET 1 1008 680
WIRE 416 48 288 48
WIRE 672 48 592 48
WIRE 592 64 592 48
WIRE 592 64 512 64
WIRE 880 64 768 64
WIRE 912 64 880 64
WIRE 416 80 368 80
WIRE 672 80 640 80
WIRE 288 96 288 48
WIRE 288 96 96 96
WIRE 368 128 368 80
WIRE 368 128 96 128
WIRE 640 160 640 80
WIRE 848 160 640 160
WIRE 880 192 880 64
WIRE 880 192 656 192
WIRE 320 272 80 272
WIRE 656 288 656 192
WIRE 688 288 656 288
WIRE 368 304 368 128
WIRE 416 304 368 304
WIRE 848 304 848 160
WIRE 848 304 784 304
WIRE 912 304 848 304
WIRE 688 320 512 320
WIRE 416 336 400 336
WIRE 320 352 320 272
WIRE 400 352 400 336
WIRE 400 352 320 352
FLAG 96 128 clk
IOPIN 96 128 In
FLAG 96 96 S
IOPIN 96 96 In
FLAG 80 272 R
IOPIN 80 272 In
FLAG 912 304 Q
IOPIN 912 304 Out
FLAG 912 64 Q~
IOPIN 912 64 Out
SYMBOL ANDgate 464 64 R0
SYMATTR InstName X1
SYMBOL ANDgate 464 320 R0
SYMATTR InstName X2
SYMBOL NORgate 720 64 R0
SYMATTR InstName X3
SYMBOL NORgate 736 304 R0
SYMATTR InstName X4
TEXT -72 -184 Left 2 !.lib C:\\Users\\NOR0185869\\Downloads\\Tech_models.txt
TEXT -232 -40 Left 2 !.lib C:\\Users\\NOR0185869\\Downloads\\Tech_models.txt
