Version 4
SHEET 1 2128 1092
WIRE -1872 -256 -1872 -288
WIRE -1344 -224 -1344 -256
WIRE -1872 -208 -1872 -256
WIRE 576 -192 368 -192
WIRE -1344 -128 -1344 -144
WIRE 576 -96 384 -96
WIRE -1872 0 -1872 -32
WIRE -1344 0 -1344 -32
WIRE -544 0 -560 0
WIRE 576 0 400 0
WIRE -1872 48 -1872 0
WIRE -1344 48 -1344 0
WIRE -48 48 -240 48
WIRE 48 48 -48 48
WIRE -800 64 -816 64
WIRE -736 64 -800 64
WIRE -560 64 -560 0
WIRE -496 64 -560 64
WIRE -240 64 -240 48
WIRE -240 64 -384 64
WIRE -592 80 -640 80
WIRE -544 80 -592 80
WIRE -48 80 -160 80
WIRE 48 80 -48 80
WIRE 352 80 304 80
WIRE 368 80 368 -192
WIRE 368 80 352 80
WIRE -800 96 -816 96
WIRE -736 96 -800 96
WIRE -544 96 -544 80
WIRE -496 96 -544 96
WIRE -240 96 -384 96
WIRE 576 96 416 96
WIRE -48 112 -208 112
WIRE 48 112 -48 112
WIRE 352 112 304 112
WIRE 384 112 384 -96
WIRE 384 112 352 112
WIRE -240 144 -240 96
WIRE -48 144 -240 144
WIRE 48 144 -48 144
WIRE 352 144 304 144
WIRE 400 144 400 0
WIRE 400 144 352 144
WIRE -48 176 -96 176
WIRE 48 176 -48 176
WIRE 352 176 304 176
WIRE 416 176 416 96
WIRE 416 176 352 176
WIRE 576 192 400 192
WIRE -528 208 -544 208
WIRE -512 208 -528 208
WIRE -48 208 -96 208
WIRE 48 208 -48 208
WIRE 352 208 304 208
WIRE 400 208 400 192
WIRE 400 208 352 208
WIRE -800 240 -816 240
WIRE -736 240 -800 240
WIRE -544 240 -544 208
WIRE -496 240 -544 240
WIRE -160 240 -160 80
WIRE -160 240 -384 240
WIRE -96 240 -96 224
WIRE -48 240 -96 240
WIRE 48 240 -48 240
WIRE 352 240 304 240
WIRE 544 240 352 240
WIRE -592 256 -640 256
WIRE -576 256 -592 256
WIRE -1872 272 -1872 240
WIRE -800 272 -816 272
WIRE -736 272 -800 272
WIRE -576 272 -576 256
WIRE -496 272 -576 272
WIRE -208 272 -208 112
WIRE -208 272 -384 272
WIRE -48 272 -176 272
WIRE 48 272 -48 272
WIRE 352 272 304 272
WIRE 528 272 352 272
WIRE 544 288 544 240
WIRE 576 288 544 288
WIRE -48 304 -144 304
WIRE 48 304 -48 304
WIRE 352 304 304 304
WIRE 512 304 352 304
WIRE -1872 320 -1872 272
WIRE -1344 320 -1344 272
WIRE -48 336 -96 336
WIRE 48 336 -48 336
WIRE 528 384 528 272
WIRE 576 384 528 384
WIRE -416 416 -448 416
WIRE -368 416 -416 416
WIRE -176 416 -176 272
WIRE -176 416 -240 416
WIRE -416 448 -448 448
WIRE -368 448 -416 448
WIRE -144 448 -144 304
WIRE -144 448 -240 448
WIRE -1344 480 -1344 464
WIRE 512 496 512 304
WIRE 576 496 512 496
WIRE -1872 512 -1872 464
WIRE -1344 528 -1344 480
WIRE -1872 544 -1872 512
WIRE -1872 720 -1872 672
WIRE -1344 720 -1344 672
WIRE -1872 752 -1872 720
WIRE -1344 752 -1344 720
WIRE -1872 960 -1872 912
WIRE -1872 992 -1872 960
FLAG -1344 128 0
FLAG -1344 0 write
FLAG -1344 -128 0
FLAG -1344 -256 SE
FLAG -1872 128 0
FLAG -1872 0 SE_bar
FLAG -1872 -128 0
FLAG -1872 -256 PC
FLAG -1872 400 0
FLAG -1872 272 A0
FLAG -1872 624 0
FLAG -1872 512 B0
FLAG -48 48 D
FLAG -48 80 D1
FLAG -48 112 D1_bar
FLAG -48 144 D_bar
FLAG -48 176 PC
FLAG -48 208 SE
FLAG -48 240 SE_bar
FLAG -48 272 WL0
FLAG -48 304 WL1
FLAG -48 336 write
FLAG 352 80 bit0
FLAG 352 112 bit0_bar
FLAG 352 144 bit1
FLAG 352 176 bit1_bar
FLAG 352 208 q0
FLAG 352 240 q1
FLAG 352 272 q2
FLAG 352 304 q3
FLAG 576 256 0
FLAG 576 352 0
FLAG 576 448 0
FLAG 576 560 0
FLAG -1344 400 0
FLAG -1344 272 A1
FLAG -1344 608 0
FLAG -1344 480 B1
FLAG -1872 832 0
FLAG -1872 720 Enable
FLAG -1344 832 0
FLAG -1344 720 Row#
FLAG -1872 1072 0
FLAG -1872 960 CLK
FLAG -528 208 CLK
FLAG -544 0 CLK
FLAG -800 64 A0
FLAG -800 240 A1
FLAG -800 272 B1
FLAG -800 96 B0
FLAG -416 416 Enable
FLAG -416 448 Row#
FLAG -592 80 A0^B0
FLAG -592 256 A1^B1
SYMBOL SRAM2x2 176 192 R0
SYMATTR InstName X1
SYMBOL voltage -1344 32 R0
WINDOW 123 0 0 Left 0
WINDOW 39 0 0 Left 0
SYMATTR InstName V4
SYMATTR Value PULSE(0 1.1 4n 100p 100p 1.25n 12.5n)
SYMBOL voltage -1344 -240 R0
WINDOW 123 0 0 Left 0
WINDOW 39 0 0 Left 0
SYMATTR InstName V5
SYMATTR Value PULSE(0 1.1 2n 100p 100p 750p 25n)
SYMBOL voltage -1872 32 R0
WINDOW 123 0 0 Left 0
WINDOW 39 0 0 Left 0
SYMATTR InstName V6
SYMATTR Value PULSE(1.1 0 2n 100p 100p 750p 25n)
SYMBOL voltage -1872 -224 R0
WINDOW 123 0 0 Left 0
WINDOW 39 0 0 Left 0
SYMATTR InstName V7
SYMATTR Value PULSE(1.1 0 0 100p 100p 2.5n 25n 100)
SYMBOL voltage -1872 304 R0
WINDOW 123 0 0 Left 0
WINDOW 39 0 0 Left 0
SYMATTR InstName V8
SYMATTR Value PULSE(0 1.1 0 1n 1n 10n 20n 100 )
SYMBOL voltage -1872 528 R0
WINDOW 123 0 0 Left 0
WINDOW 39 0 0 Left 0
SYMATTR InstName V10
SYMATTR Value PULSE(0 1.1 0 1n 1n 40n 80n 100)
SYMBOL cap 560 192 R0
SYMATTR InstName C1
SYMATTR Value 5fC
SYMBOL cap 560 288 R0
SYMATTR InstName C2
SYMATTR Value 10fC
SYMBOL cap 560 384 R0
SYMATTR InstName C3
SYMATTR Value 5fC
SYMBOL cap 560 496 R0
SYMATTR InstName C4
SYMATTR Value 10fC
SYMBOL Decoder -304 432 R0
SYMATTR InstName DECODER
SYMBOL Bitwise_XOR -688 80 R0
SYMATTR InstName XOR1
SYMBOL Bitwise_XOR -688 256 R0
SYMATTR InstName XOR2
SYMBOL D_FF -448 80 R0
SYMATTR InstName D_FF1
SYMBOL D_FF -448 256 R0
SYMATTR InstName D_FF2
SYMBOL voltage -1344 304 R0
WINDOW 123 0 0 Left 0
WINDOW 39 0 0 Left 0
SYMATTR InstName V11
SYMATTR Value PULSE(0 1 0 1n 1n 20n 40n 100)
SYMBOL voltage -1344 512 R0
WINDOW 123 0 0 Left 0
WINDOW 39 0 0 Left 0
SYMATTR InstName V12
SYMATTR Value PULSE(0 1.1 0 1n 1n 80n 160n 100)
SYMBOL voltage -1872 736 R0
WINDOW 123 0 0 Left 0
WINDOW 39 0 0 Left 0
SYMATTR InstName V13
SYMATTR Value PWL(0 1.1 69n 1.1 70n 0 90n 0 91n 1.1)
SYMBOL voltage -1344 736 R0
WINDOW 123 0 0 Left 0
WINDOW 39 0 0 Left 0
SYMATTR InstName V14
SYMATTR Value PULSE(0 1.1 0 1n 1n 1n 2n 100)
SYMBOL voltage -1872 976 R0
WINDOW 123 0 0 Left 0
WINDOW 39 0 0 Left 0
SYMATTR InstName V15
SYMATTR Value PULSE(0 1.1 0 1n 1n 5n 10n 100)
TEXT -1352 928 Left 2 !.tran 200n
