Version 4
SHEET 1 2384 728
WIRE 1536 -384 1536 -416
WIRE 1536 -336 1536 -384
WIRE -320 -112 -320 -160
WIRE -320 -96 -320 -112
WIRE 1632 -96 1632 -144
WIRE -432 0 -432 -16
WIRE 544 16 480 16
WIRE 592 16 544 16
WIRE 544 48 512 48
WIRE 592 48 544 48
WIRE 912 48 848 48
WIRE 976 48 912 48
WIRE 1920 64 1920 32
WIRE 592 80 528 80
WIRE 912 80 848 80
WIRE 976 80 912 80
WIRE 48 96 16 96
WIRE 64 96 48 96
WIRE 240 96 208 96
WIRE 256 96 240 96
WIRE 448 96 368 96
WIRE 480 96 480 16
WIRE 480 96 448 96
WIRE -368 112 -368 80
WIRE 192 112 160 112
WIRE 240 112 192 112
WIRE 592 112 576 112
WIRE 896 112 848 112
WIRE 976 112 896 112
WIRE 1920 112 1920 64
WIRE -368 128 -368 112
WIRE 48 128 16 128
WIRE 64 128 48 128
WIRE 240 128 240 112
WIRE 256 128 240 128
WIRE 416 128 368 128
WIRE 576 128 576 112
WIRE 576 128 416 128
WIRE 576 144 544 144
WIRE 592 144 576 144
WIRE 896 144 848 144
WIRE 976 144 896 144
WIRE 560 176 544 176
WIRE 592 176 560 176
WIRE 912 176 848 176
WIRE 1024 176 912 176
WIRE 576 208 544 208
WIRE 592 208 576 208
WIRE 912 208 848 208
WIRE 1088 208 912 208
WIRE -480 224 -480 208
WIRE 48 240 16 240
WIRE 64 240 48 240
WIRE 240 240 224 240
WIRE 256 240 240 240
WIRE 448 240 368 240
WIRE 512 240 512 48
WIRE 512 240 448 240
WIRE 592 240 560 240
WIRE 912 240 848 240
WIRE 992 240 912 240
WIRE 192 256 160 256
WIRE 224 256 192 256
WIRE 48 272 16 272
WIRE 64 272 48 272
WIRE 224 272 224 256
WIRE 256 272 224 272
WIRE 400 272 368 272
WIRE 528 272 528 80
WIRE 528 272 400 272
WIRE 592 272 576 272
WIRE 912 272 848 272
WIRE 976 272 912 272
WIRE 992 288 992 240
WIRE 1024 288 992 288
WIRE 544 304 512 304
WIRE 592 304 544 304
WIRE 976 336 976 272
WIRE 1760 384 1760 352
WIRE 288 416 240 416
WIRE 336 416 288 416
WIRE 528 416 464 416
WIRE 560 416 560 240
WIRE 560 416 528 416
WIRE 1760 432 1760 384
WIRE 288 448 240 448
WIRE 336 448 288 448
WIRE 528 448 464 448
WIRE 576 448 576 272
WIRE 576 448 528 448
WIRE -288 496 -288 448
WIRE -288 512 -288 496
WIRE 416 528 416 480
WIRE 416 544 416 528
WIRE 256 592 256 544
WIRE 256 608 256 592
FLAG -288 592 0
FLAG -288 496 clk
FLAG 240 96 clk
FLAG 240 240 clk
FLAG 256 688 0
FLAG 256 592 E
FLAG -320 -16 0
FLAG -320 -112 A0
FLAG -432 80 0
FLAG -432 -16 A1
FLAG -368 208 0
FLAG -480 304 0
FLAG -480 208 B1
FLAG -368 112 B0
FLAG 48 96 A0
FLAG 48 240 A1
FLAG 48 128 B0
FLAG 48 272 B1
FLAG 288 416 E
FLAG 416 624 0
FLAG 416 528 ROW
FLAG 1632 -16 0
FLAG 1632 -144 SE
FLAG 1920 192 0
FLAG 1920 64 SE_bar
FLAG 1536 -256 0
FLAG 1536 -384 PC
FLAG 1760 512 0
FLAG 1760 384 write
FLAG 576 144 PC
FLAG 560 176 SE
FLAG 576 208 SE_bar
FLAG 544 304 write
FLAG 288 448 ROW
FLAG 912 48 bit0
FLAG 912 80 bit0_bar
FLAG 896 112 bit1
FLAG 896 144 bit1_bar
FLAG 912 176 q0
FLAG 912 208 q1
FLAG 912 240 q2
FLAG 912 272 q3
FLAG 192 112 a0xorb0
FLAG 192 256 a1xorb1
FLAG 544 16 D
FLAG 544 48 D1
FLAG 448 304 0
FLAG 448 160 0
FLAG 400 336 0
FLAG 416 192 0
FLAG 1024 240 0
FLAG 1088 272 0
FLAG 1024 352 0
FLAG 976 400 0
FLAG 528 416 wl0
FLAG 528 448 wl1
SYMBOL Bitwise_XOR 112 112 R0
SYMATTR InstName xor0
SYMBOL Bitwise_XOR 112 256 R0
SYMATTR InstName xor1
SYMBOL D_FF 304 112 R0
SYMATTR InstName D0
SYMBOL D_FF 304 256 R0
SYMATTR InstName D1
SYMBOL Decoder 400 432 R0
SYMATTR InstName decoder0
SYMBOL SRAM2x2 720 160 R0
SYMATTR InstName sram2x2
SYMBOL voltage -288 496 R0
WINDOW 123 0 0 Left 0
WINDOW 39 0 0 Left 0
SYMATTR InstName V1
SYMATTR Value PULSE(0 1.1 0n 1n 1n 20n 40n 100)
SYMBOL voltage 256 592 R0
WINDOW 123 0 0 Left 0
WINDOW 39 0 0 Left 0
SYMATTR InstName V2
SYMATTR Value PULSE(0 1.1 0n 1n 1n 20n 40n 20)
SYMBOL voltage -320 -112 R0
WINDOW 123 0 0 Left 0
WINDOW 39 0 0 Left 0
SYMATTR InstName V3
SYMATTR Value PULSE(0 1.1 0n 1n 1n 20n 40n 100)
SYMBOL voltage -432 -16 R0
WINDOW 123 0 0 Left 0
WINDOW 39 0 0 Left 0
SYMATTR InstName V4
SYMATTR Value PULSE(0 1.1 0n 1n 1n 40n 80n 100)
SYMBOL voltage -368 112 R0
WINDOW 123 0 0 Left 0
WINDOW 39 0 0 Left 0
SYMATTR InstName V5
SYMATTR Value PULSE(0 1.1 0n 1n 1n 40n 80n 100)
SYMBOL voltage -480 208 R0
WINDOW 123 0 0 Left 0
WINDOW 39 0 0 Left 0
SYMATTR InstName V6
SYMATTR Value PULSE(0 1.1 0n 1n 1n 80n 160n 100)
SYMBOL voltage 416 528 R0
WINDOW 123 0 0 Left 0
WINDOW 39 0 0 Left 0
SYMATTR InstName V7
SYMATTR Value PULSE(0 1.1 0n 1n 1n 10n 20n 20)
SYMBOL voltage 1632 -112 R0
WINDOW 123 0 0 Left 0
WINDOW 39 0 0 Left 0
SYMATTR InstName V9
SYMATTR Value PULSE(0 1.1 2n 100p 100p 750p 25n)
SYMBOL voltage 1920 96 R0
WINDOW 123 0 0 Left 0
WINDOW 39 0 0 Left 0
SYMATTR InstName V10
SYMATTR Value PULSE(1.1 0 2n 100p 100p 750p 25n)
SYMBOL voltage 1536 -352 R0
WINDOW 123 0 0 Left 0
WINDOW 39 0 0 Left 0
SYMATTR InstName V11
SYMATTR Value PULSE(1.1 0 0 100p 100p 2.5n 25n 100)
SYMBOL voltage 1760 416 R0
WINDOW 123 0 0 Left 0
WINDOW 39 0 0 Left 0
SYMATTR InstName V8
SYMATTR Value PULSE(0 1.1 4n 100p 100p 1.25n 12.5n)
SYMBOL cap 432 96 R0
SYMATTR InstName C1
SYMATTR Value 5f
SYMBOL cap 432 240 R0
SYMATTR InstName C2
SYMATTR Value 5fC
SYMBOL cap 400 128 R0
SYMATTR InstName C3
SYMATTR Value 5f
SYMBOL cap 384 272 R0
SYMATTR InstName C4
SYMATTR Value 5f
SYMBOL cap 1008 176 R0
SYMATTR InstName C5
SYMATTR Value 5f
SYMBOL cap 1072 208 R0
SYMATTR InstName C6
SYMATTR Value 5f
SYMBOL cap 1008 288 R0
SYMATTR InstName C7
SYMATTR Value 5f
SYMBOL cap 960 336 R0
SYMATTR InstName C8
SYMATTR Value 5f
TEXT -514 712 Left 2 !.tran 200n
